read_data	PE_nc10_cl1000.dat
  orthogonal box = (0 0 0) to (80.0586 80.0586 80.0586)
  reading atoms ...
  10000 atoms
  scanning bonds ...
  scanning angles ...
  scanning dihedrals ...
  reading bonds ...
  9990 bonds
  reading angles ...
  9980 angles
  reading dihedrals ...
  9970 dihedrals

# Dreiding potential information
neighbor	0.4 bin
neigh_modify	every 10 one 10000
bond_style      harmonic
bond_coeff	1 350 1.53
angle_style     harmonic
angle_coeff	1 60 109.5
dihedral_style	multi/harmonic
dihedral_coeff	1 1.73 -4.49 0.776 6.99 0.0
pair_style	lj/cut 10.5
pair_coeff	1 1 0.112 4.01 10.5

#####################################################
# Equilibration Stage 1 (Langevin dynamics at 500 K)
velocity 	all create 500.0 1231
fix		1 all nve/limit 0.05
fix		2 all langevin 500.0 500.0 10.0 904297
thermo_style	custom step temp press
thermo          1000
timestep	1
run		10000
  update every 10 steps, delay 10 steps, check yes
Step Temp Press
0          500 1.8475473e+08
Averages over the last 6 of 11 rows, steps 5000 to 10000:
Temp Press
499.314 2152.77
Loop time of 12.0928 on 8 procs for 10000 steps with 10000 atoms

unfix 1
unfix 2

#####################################################
# Equilibration Stage 2 (NPT dynamics at 500 K)
fix		1 all npt temp 500.0 500.0 50 iso 0 0 1000 drag 2
fix  		2 all momentum 1 linear 1 1 1
thermo_style	custom step temp press
thermo          1000
timestep	0.5
reset_timestep	0
run		10000
Step Temp Press EBOND
0    497.96158    1631.8833  1631.8833
Averages over the last 6 of 11 rows, steps 5000 to 10000:
Temp Press EBOND
500.108 -83.0234 -83.0234
Loop time of 11.9327 on 8 procs for 10000 steps with 10000 atoms

unfix 1
unfix 2

####################################################
# Equilibration Stage 3 (NPT dynamics from 500 K --> 100 K)
fix		1 all npt temp 500 100 50 iso 0 0 1000 drag 2
fix		2 all momentum 1 linear 1 1 1
thermo_style	custom step temp press
thermo          10
timestep	0.5
reset_timestep 	0
run		10000
Step Temp Press
0      504.174   -264.05162
Averages over the last 51 of 101 rows, steps 500 to 1000:
Temp Press
483.781 -139.521
Loop time of 23.4114 on 8 procs for 10000 steps with 10000 atoms

unfix 1
unfix 2
